benchmarks/roundtrips/ucte/IEEE 14 bus.uct
##C 2007.05.01
*******************************************************
	Created by Transmission Network Analyzer_FORsee (TNA_FORsee). Made by EKC Belgrade & DMS Group Novi Sad, 2012.
	15  nodes
	18  lines
	3  transformers
	3  transformer regulations
	0  tap changers
*******************************************************

##N
##ZIEEE14
1     3  1            0 3 146.28       0       0 -232.39  16.549   10000  -10000       0       0     0       0       0       0  
2     3  2            0 2 144.21    21.7    12.7     -40 -43.556   10000  -10000      40     -50     0       0       0       0  
3     3  3            0 2 139.38    94.2      19       0 -25.075   10000  -10000       0     -40     0       0       0       0  
4     3  4            0 0 140.44    47.8    -3.9       0       0       0       0       0       0     0       0       0       0  
5     3  5            0 0 140.69     7.6     1.6       0       0       0       0       0       0     0       0       0       0  
6     3  6            0 2 147.66    11.2     7.5       0  -12.73   10000  -10000       6     -24     0       0       0       0  
7     3  7            0 0 146.49       0       0       0       0       0       0       0       0     0       0       0       0  
8     3  8            0 2 150.42       0       0       0 -17.623   10000  -10000       6     -24     0       0       0       0  
9     3  9            0 0 145.72    29.5    16.6       0       0       0       0       0       0     0       0       0       0  
10    3  10           0 0 145.04       9     5.8       0       0       0       0       0       0     0       0       0       0  
11    3  11           0 0 145.85     3.5     1.8       0       0       0       0       0       0     0       0       0       0  
12    3  12           0 0 145.62     6.1     1.6       0       0       0       0       0       0     0       0       0       0  
13    3  13           0 0 144.95    13.5     5.8       0       0       0       0       0       0     0       0       0       0  
14    3  14           0 0  142.9    14.9       5       0       0       0       0       0       0     0       0       0       0  
9_____3Q Fict. shunt  1 0    138       0       0       0       0       0       0       0       0     0       0       0       0  
##ZXX
##L
1     3  2     3  1 0 3.6907 11.268 277.2527      0 _AC_1_2_CKT_
1     3  5     3  1 0 10.289 42.476 258.3491      0 _AC_1_5_CKT_
2     3  3     3  1 0 8.9488 37.701 229.9937      0 _AC_2_3_CKT_
2     3  4     3  1 0 11.066 33.578 178.5339      0 _AC_2_4_CKT_
2     3  5     3  1 0 10.846 33.114 181.6845      0 _AC_2_5_CKT_
3     3  4     3  1 0 12.761 32.571 67.21276      0 _AC_3_4_CKT_
4     3  5     3  1 0 2.5424 8.0194        0      0 _AC_4_5_CKT_
6     3  11    3  1 0 18.088 37.879        0      0 _AC_6_11_CKT
6     3  12    3  1 0 23.407 48.716        0      0 _AC_6_12_CKT
6     3  13    3  1 0 12.598 24.809        0      0 _AC_6_13_CKT
7     3  8     3  1 0      0 33.546        0      0 _AC_7_8_CKT_
7     3  9     3  1 0      0  20.95        0      0 _AC_7_9_CKT_
9     3  10    3  1 0 6.0579 16.092        0      0 _AC_9_10_CKT
9     3  14    3  1 0 24.207 51.491        0      0 _AC_9_14_CKT
10    3  11    3  1 0 15.626 36.578        0      0 _AC_10_11_CK
12    3  13    3  1 0 42.072 38.065        0      0 _AC_12_13_CK
13    3  14    3  1 0 32.552 66.277        0      0 _AC_13_14_CK
9     3  9_____3Q 1 1      0   0.05 997.6896        
##T
4     3  7     3  1 0   135   138   100      0 38.092        0      0      0 _PT_4_7_CKT_
4     3  9     3  2 0 133.7   138   100      0 99.454        0      0      0 _PT_4_9_CKT_
5     3  6     3  1 0 128.6   138   100      0 41.689        0      0      0 _PT_5_6_CKT_
##R
##TT
##E
